MatpowerDataProcesssed/d_case2736sp.m
% 01/10/12 File data originated from Matpower data file
% 

Bus.con = [ ...
      1      220    1.101   0.6419    1    1;
      2      220    1.106    0.672    1    1;
      3      220    1.085   0.2365    1    1;
      4      220    1.092   0.5676    1    1;
      5      220    1.092   0.5675    1    1;
      6      220    1.065   0.3881    1    1;
      7      220    1.065   0.3883    1    1;
      8      400    1.026   0.4433    1    1;
      9      400    1.026   0.4434    1    1;
     10      220    1.059   0.3798    1    1;
     11      220    1.059   0.3797    1    1;
     12      220    1.059   0.3798    1    1;
     13      220    1.059   0.3797    1    1;
     14      400    1.018   0.4675    1    1;
     15      400    1.032   0.3961    1    1;
     16      400    1.032   0.3961    1    1;
     17      220    1.093   0.2871    1    1;
     18      220    1.093   0.2871    1    1;
     19      220    1.097    0.585    1    1;
     20      220    1.097   0.5851    1    1;
     21      220    1.078   0.3601    1    1;
     22      220    1.078   0.3601    1    1;
     23      220    1.056   0.3796    1    1;
     24      220    1.098   0.6158    1    1;
     25      400    1.033   0.4377    1    1;
     26      220     1.11   0.6476    1    1;
     27      220     1.11   0.6771    1    1;
     28      400    1.046   0.6288    1    1;
     29      400    1.046   0.6289    1    1;
     30      220    1.066   0.3726    1    1;
     31      400    1.044   0.6038    1    1;
     32      220    1.056   0.3743    1    1;
     33      220    1.099   0.5254    1    1;
     34      220    1.077    0.476    1    2;
     35      220     1.08    0.483    1    2;
     36      220    1.088      0.5    1    2;
     37      220    1.088      0.5    1    2;
     38      220    1.067   0.4544    1    2;
     39      220     1.11   0.5059    1    2;
     40      220     1.11   0.5059    1    2;
     41      400    1.024   0.5094    1    2;
     42      220    1.091   0.4857    1    2;
     43      220    1.091    0.486    1    2;
     44      400    1.027   0.4931    1    2;
     45      400    1.027    0.493    1    2;
     46      220    1.107   0.4972    1    2;
     47      400    1.038   0.4512    1    2;
     48      400    1.038   0.4511    1    2;
     49      400    1.034   0.4842    1    2;
     50      220    1.074   0.4728    1    2;
     51      220    1.074   0.4728    1    2;
     52      400    1.038   0.4967    1    2;
     53      400    1.038   0.4967    1    2;
     54      220    1.092   0.5177    1    2;
     55      220    1.092   0.5176    1    2;
     56      400    1.045   0.5126    1    2;
     57      400    1.045   0.5126    1    2;
     58      220    1.085   0.4783    1    2;
     59      220    1.085   0.4783    1    2;
     60      220    1.102   0.4961    1    2;
     61      220    1.093   0.4778    1    2;
     62      220    1.092   0.4778    1    2;
     63      400    1.048   0.4936    1    2;
     64      400    1.048   0.4934    1    2;
     65      220    1.081   0.4814    1    2;
     66      220    1.083   0.4843    1    2;
     67      220    1.075   0.4853    1    2;
     68      220    1.101   0.5688    1    3;
     69      220    1.096    0.512    1    3;
     70      220    1.096   0.5121    1    3;
     71      220    1.099   0.5644    1    3;
     72      220    1.099   0.5647    1    3;
     73      220    1.096   0.5598    1    3;
     74      220    1.096   0.5597    1    3;
     75      220    1.098   0.5372    1    3;
     76      220    1.098   0.5371    1    3;
     77      220    1.102   0.5788    1    3;
     78      220      1.1   0.5796    1    3;
     79      220    1.092   0.5563    1    3;
     80      220    1.092   0.5563    1    3;
     81      400    1.032    0.562    1    3;
     82      220    1.088   0.5443    1    3;
     83      220    1.098   0.5513    1    3;
     84      220    1.098   0.5514    1    3;
     85      220    1.102   0.5686    1    3;
     86      220    1.102   0.5685    1    3;
     87      220    1.092   0.5566    1    3;
     88      220    1.092   0.5567    1    3;
     89      220    1.103   0.5765    1    3;
     90      220    1.103   0.5765    1    3;
     91      400    1.048    0.597    1    3;
     92      400    1.048    0.597    1    3;
     93      220    1.094   0.5495    1    3;
     94      220    1.094   0.5494    1    3;
     95      220    1.093    0.553    1    3;
     96      220    1.093    0.553    1    3;
     97      220    1.099   0.5664    1    3;
     98      220    1.099   0.5663    1    3;
     99      220    1.096   0.5124    1    3;
    100      220    1.096   0.5124    1    3;
    101      220    1.091   0.5307    1    3;
    102      220    1.091   0.5307    1    3;
    103      220      1.1   0.5509    1    3;
    104      220    1.099   0.5504    1    3;
    105      220    1.095   0.5579    1    3;
    106      220    1.095   0.5578    1    3;
    107      220    1.099   0.5567    1    3;
    108      220    1.099   0.5565    1    3;
    109      220    1.094   0.5437    1    3;
    110      220    1.087   0.5546    1    3;
    111      220    1.087   0.5546    1    3;
    112      220    1.093   0.5577    1    3;
    113      220    1.093   0.5578    1    3;
    114      400    1.041   0.5466    1    3;
    115      220      1.1   0.5732    1    3;
    116      220      1.1   0.5733    1    3;
    117      220    1.098   0.5579    1    3;
    118      220    1.098   0.5577    1    3;
    119      400     1.05   0.5079    1    3;
    120      400     1.05    0.508    1    3;
    121      400     1.05   0.5495    1    3;
    122      400     1.05   0.5496    1    3;
    123      220    1.093   0.5425    1    3;
    124      220    1.099   0.5761    1    3;
    125      220    1.099   0.5764    1    3;
    126      400    1.036   0.5535    1    3;
    127      400    1.036   0.5535    1    3;
    128      220    1.101   0.5667    1    3;
    129      220    1.101   0.5667    1    3;
    130      220    1.102   0.5707    1    3;
    131      220    1.101   0.5434    1    3;
    132      220    1.098   0.5371    1    3;
    133      220     1.11   0.5045    1    4;
    134      220     1.11   0.5044    1    4;
    135      220    1.081   0.4364    1    4;
    136      220    1.083   0.4511    1    4;
    137      400    1.007   0.4473    1    4;
    138      400    1.007   0.4473    1    4;
    139      220    1.095   0.3177    1    4;
    140      220      1.1   0.2459    1    4;
    141      220      1.1   0.2459    1    4;
    142      220      1.1   0.2795    1    4;
    143      220    1.078   0.4138    1    4;
    144      220    1.078   0.4138    1    4;
    145      220    1.109   0.4431    1    4;
    146      220    1.109   0.4431    1    4;
    147      220     1.11   0.2863    1    4;
    148      220     1.11   0.2864    1    4;
    149      400     1.04   0.3083    1    4;
    150      400     1.04   0.3083    1    4;
    151      220     1.07   0.3128    1    4;
    152      220    1.097   0.3534    1    4;
    153      220    1.097   0.3533    1    4;
    154      220    1.086   0.4888    1    4;
    155      220    1.086   0.4886    1    4;
    156      400    1.004    0.481    1    4;
    157      400    1.004   0.4811    1    4;
    158      220    1.099   0.2465    1    4;
    159      220    1.099   0.2465    1    4;
    160      400    1.013   0.4467    1    4;
    161      400    1.015   0.4667    1    4;
    162      400    1.015   0.4666    1    4;
    163      220     1.11   0.4401    1    4;
    164      220     1.11     0.44    1    4;
    165      220     1.11     0.44    1    4;
    166      220     1.09   0.2459    1    4;
    167      220    1.099   0.2436    1    4;
    168      220    1.093   0.2977    1    4;
    169      220    1.093   0.2976    1    4;
    170      400    1.028   0.2891    1    4;
    171      400    1.028   0.2891    1    4;
    172      220    1.068   0.3596    1    4;
    173      220    1.068   0.3597    1    4;
    174      220    1.091   0.3552    1    4;
    175      220     1.08   0.4408    1    4;
    176      220     1.08    0.441    1    4;
    177      220    1.082   0.4635    1    4;
    178      220    1.082   0.4635    1    4;
    179      220     1.11    0.375    1    4;
    180      220    1.067   0.3431    1    4;
    181      220    1.073   0.3064    1    5;
    182      220    1.091   0.2793    1    5;
    183      400    1.038    0.299    1    5;
    184      400    1.038    0.299    1    5;
    185      400    1.032    0.333    1    5;
    186      400    1.032    0.333    1    5;
    187      220     1.08   0.2599    1    5;
    188      220     1.08   0.2599    1    5;
    189      220    1.076   0.2871    1    5;
    190      220    1.076   0.2871    1    5;
    191      400    1.018   0.3578    1    5;
    192      220    1.077   0.3181    1    5;
    193      220    1.077   0.3181    1    5;
    194      400    1.033   0.3029    1    5;
    195      400    1.033   0.3028    1    5;
    196      220    1.075   0.2532    1    5;
    197      220    1.075   0.2532    1    5;
    198      400    1.029   0.3174    1    5;
    199      400    1.029   0.3173    1    5;
    200      220    1.069   0.2827    1    5;
...
   ];

SW.con = [ ...
     28    415.9      400    1.027   0.6288   0.4568 -0.04568     1.05     0.95   0.8896 1 1  1;
     28    415.9      400    1.027   0.6288   0.4568 -0.04568     1.05     0.95        0 1 1  0;
     28    415.9      400    1.027   0.6288   0.4568 -0.04568     1.05     0.95   0.8896 1 1  1;
   ];

PV.con = [ ...
  17    241.9      220        0    1.071   0.4961 -0.09095     1.11     0.95 1  0;
  17    233.2      220        0    1.071   0.5146 -0.09434     1.11     0.95 1  0;
  26    415.9      220   0.8896    1.091   0.4568 -0.04568     1.11     0.95 1  1;
  27    407.1      220   0.8843    1.091   0.4667 -0.04667     1.11     0.95 1  1;
  27    407.1      220   0.8843    1.091   0.4667 -0.04667     1.11     0.95 1  1;
  27    415.9      220   0.8896    1.091   0.4568 -0.04568     1.11     0.95 1  1;
  26    415.9      220   0.8896    1.091   0.4568 -0.04568     1.11     0.95 1  1;
  29    415.9      400        0    1.027   0.4568 -0.04568     1.05     0.95 1  0;
  29    415.9      400   0.8896    1.027   0.4568 -0.04568     1.05     0.95 1  1;
  29    415.9      400   0.8896    1.027   0.4568 -0.04568     1.05     0.95 1  1;
  42    253.9      220    0.512    1.091   0.5317  -0.1339     1.11     0.95 1  1;
  42    242.7      220        0    1.091   0.5356  -0.1401     1.11     0.95 1  0;
  42    267.7      220   0.4109    1.091   0.5417   -0.127     1.11     0.95 1  1;
  43    267.7      220   0.4483    1.091   0.5417   -0.127     1.11     0.95 1  1;
  43    267.7      220   0.4856    1.091   0.5417   -0.127     1.11     0.95 1  1;
  43    242.7      220        0    1.091   0.5356  -0.1401     1.11     0.95 1  0;
  44    646.5      400   0.6709    1.019   0.5615  -0.0727     1.05     0.95 1  1;
  44    659.3      400        0    1.019   0.5278  -0.1517     1.05     0.95 1  0;
  54    247.9      220   0.5204    1.091   0.4195 -0.004034     1.11     0.95 1  1;
  55    259.9      220   0.4963    1.091   0.5002 -0.06156     1.11     0.95 1  1;
  54    259.9      220        0    1.091   0.5002 -0.06156     1.11     0.95 1  0;
  56    259.9      400   0.4963     1.04   0.5002 -0.06156     1.05     0.95 1  1;
  57    259.9      400   0.4963     1.04   0.5002 -0.06156     1.05     0.95 1  1;
  57    247.9      400        0     1.04   0.4195 -0.004034     1.05     0.95 1  0;
  57    259.9      400   0.4963     1.04   0.5002 -0.06156     1.05     0.95 1  1;
  58     66.5      220   0.7233    1.088   0.4511        0     1.11     0.95 1  1;
  77    256.4      220   0.8775    1.091   0.4797  -0.0585     1.11     0.95 1  1;
  77    256.4      220   0.8775    1.091   0.4797  -0.0585     1.11     0.95 1  1;
  78      252      220        0    1.091   0.4881 -0.05952     1.11     0.95 1  0;
  78    256.4      220   0.8775    1.091   0.4797  -0.0585     1.11     0.95 1  1;
  78    256.4      220   0.8775    1.091   0.4797  -0.0585     1.11     0.95 1  1;
  81    445.2      400   0.8535    1.022   0.5211 -0.06963     1.05     0.95 1  1;
  81    434.6      400        0    1.022   0.5246 -0.06903     1.05     0.95 1  0;
  97       12      220     0.75     1.09  0.08333        0     1.11     0.95 1  1;
  97      6.1      220   0.9836     1.09   0.1639        0     1.11     0.95 1  1;
 103    256.4      220   0.8775    1.089   0.4797  -0.0585     1.11     0.95 1  1;
 104    256.4      220        0    1.089   0.4797  -0.0585     1.11     0.95 1  0;
 105    144.2      220   0.8322    1.087   0.5548 -0.01387     1.11     0.95 1  1;
 106    144.2      220        0    1.087   0.5548 -0.01387     1.11     0.95 1  0;
 115      150      220        0     1.09      0.6  -0.1333     1.11     0.95 1  0;
 116    145.3      220   0.8259     1.09   0.5643 -0.01376     1.11     0.95 1  1;
 117      117      220   0.9402    1.088   0.3419        0     1.11     0.95 1  1;
 124    253.9      220   0.8468    1.091   0.5317  -0.1378     1.11     0.95 1  1;
 125      265      220   0.8491    1.091   0.5283  -0.1321     1.11     0.95 1  1;
 125    253.9      220   0.8468    1.091   0.5317  -0.1378     1.11     0.95 1  1;
 126      265      400   0.8491    1.025   0.5283  -0.1509     1.05     0.95 1  1;
 126    259.2      400        0    1.025   0.5285  -0.1543     1.05     0.95 1  0;
 131    131.2      220   0.9527    1.086   0.3049  -0.2896     1.11     0.95 1  1;
 131    131.2      220        0    1.086   0.3049  -0.2896     1.11     0.95 1  0;
 132    131.2      220        0    1.084   0.3049  -0.2896     1.11     0.95 1  0;
 132    131.2      220        0    1.084   0.3049  -0.2896     1.11     0.95 1  0;
 133      150      220        0    1.091      0.6        0     1.11     0.95 1  0;
 133      150      220      0.8    1.091      0.6        0     1.11     0.95 1  1;
 134      150      220      0.8    1.091      0.6        0     1.11     0.95 1  1;
 145     51.4      220        0     1.09   0.2335        0     1.11     0.95 1  0;
 145     51.4      220        0     1.09   0.2335        0     1.11     0.95 1  0;
 146      150      220        0     1.09      0.6        0     1.11     0.95 1  0;
 147    267.4      220        0    1.086   0.5572  -0.1795     1.11     0.95 1  0;
 147    253.4      220        0    1.086    0.588  -0.1894     1.11     0.95 1  0;
 147    253.4      220        0    1.086    0.588  -0.1894     1.11     0.95 1  0;
 147    267.4      220   0.3366    1.086   0.5572  -0.1795     1.11     0.95 1  1;
 149    253.8      400   0.3546    1.025   0.4846 -0.09062     1.05     0.95 1  1;
 150    267.4      400   0.3366    1.025   0.5572  -0.1795     1.05     0.95 1  1;
 150    253.8      400        0    1.025   0.4846 -0.09062     1.05     0.95 1  0;
 154    278.3      220   0.8444    1.091   0.5354  -0.1904     1.11     0.95 1  1;
 154    278.3      220        0    1.091   0.5354  -0.1904     1.11     0.95 1  0;
 154    287.3      220   0.9085    1.091   0.4177        0     1.11     0.95 1  1;
 154    292.5      220        0    1.091   0.4513  -0.1368     1.11     0.95 1  0;
 155    287.3      220        0    1.091   0.4177        0     1.11     0.95 1  0;
 155      236      220   0.8686    1.091   0.4958 -0.09322     1.11     0.95 1  1;
 155    233.1      220   0.8837    1.091   0.4676  -0.0858     1.11     0.95 1  1;
 155    233.1      220        0    1.091   0.4676  -0.0858     1.11     0.95 1  0;
 157    233.1      400   0.8837    1.001   0.4676  -0.0858     1.05     0.95 1  1;
 163    225.4      220        0    1.091   0.4614   -0.102     1.11     0.95 1  0;
 163    225.4      220   0.8873    1.091   0.4614   -0.102     1.11     0.95 1  1;
 164    225.4      220   0.8873    1.091   0.4614   -0.102     1.11     0.95 1  1;
 164    225.4      220   0.8873    1.091   0.4614   -0.102     1.11     0.95 1  1;
 179    219.5      220   0.7745    1.091   0.5011        0     1.11     0.95 1  1;
 204    210.1      400    0.852    1.025   0.5236  -0.2856     1.05     0.95 1  1;
 204    210.1      400    0.852    1.025   0.5236  -0.2856     1.05     0.95 1  1;
 204    210.1      400    0.852    1.025   0.5236  -0.2856     1.05     0.95 1  1;
 205    210.1      400    0.852    1.025   0.5236  -0.2856     1.05     0.95 1  1;
 214     58.5      110   0.5983    1.092   0.3419        0     1.12     0.95 1  1;
 214     53.9      110        0    1.092   0.3711        0     1.12     0.95 1  0;
 214     53.9      110        0    1.092   0.3711        0     1.12     0.95 1  0;
 214     30.5      110   0.3279    1.092   0.6557        0     1.12     0.95 1  1;
 220      2.3      110   0.6739    1.089   0.4348        0     1.12     0.95 1  1;
 221      2.3      110   0.6739    1.071   0.4348        0     1.12     0.95 1  1;
 239      9.8      110   0.7143    1.058   0.6122        0     1.12     0.95 1  1;
 246    415.9       22   0.8896    1.039   0.4568 -0.04568     1.12     0.95 1  1;
 309     27.9      110        0    1.081   0.2509        0     1.12     0.95 1  0;
 309     27.9      110        0    1.081   0.2509        0     1.12     0.95 1  0;
 309     30.8      110   0.3571    1.081   0.2273   0.1299     1.12     0.95 1  1;
 309     27.9      110        0    1.081   0.2509        0     1.12     0.95 1  0;
 309     27.7      110        0    1.081   0.2166        0     1.12     0.95 1  0;
 309     27.9      110        0    1.081   0.2509        0     1.12     0.95 1  0;
 309     27.9      110        0    1.081   0.2509        0     1.12     0.95 1  0;
 310     36.7      110   0.4087    1.081   0.4087        0     1.12     0.95 1  1;
 310       57      110        0    1.081   0.2632        0     1.12     0.95 1  0;
 311     36.7      110   0.4087    1.063   0.4087        0     1.12     0.95 1  1;
 311       57      110        0    1.063   0.2632        0     1.12     0.95 1  0;
 313     53.9      110   0.5566    1.086   0.3711        0     1.12     0.95 1  1;
 313     53.9      110        0    1.086   0.3711        0     1.12     0.95 1  0;
 314    107.7      110        0    1.079   0.3714        0     1.12     0.95 1  0;
 322      4.1      110   0.6098    1.085   0.7317        0     1.12     0.95 1  1;
 365     47.8      110   0.9048    1.082    0.251        0     1.12     0.95 1  1;
 366     47.8      110   0.9048    1.066    0.251        0     1.12     0.95 1  1;
 367     47.8      110   0.9048    1.089    0.251        0     1.12     0.95 1  1;
 368     47.8      110   0.9048    1.085    0.251        0     1.12     0.95 1  1;
 385    251.3      110   0.5571    1.091   0.5491   -0.187     1.12     0.95 1  1;
 385     26.9      110        0    1.091   0.3717        0     1.12     0.95 1  0;
 386     19.7      110   0.5076    1.078   0.5076        0     1.12     0.95 1  1;
 443      3.6      110   0.4167     1.05   0.5556        0     1.12     0.95 1  1;
 452      6.1      110   0.8541    1.074   0.3279        0     1.12     0.95 1  1;
 452      6.1      110        0    1.074   0.3279        0     1.12     0.95 1  0;
 485      1.7      110   0.8235     1.05   0.4118        0     1.12     0.95 1  1;
 536     53.9      110   0.7421    1.061   0.2597        0     1.12     0.95 1  1;
 536     34.9      110        0    1.061   0.4011        0     1.12     0.95 1  0;
 536       34      110        0    1.061   0.4118        0     1.12     0.95 1  0;
 536    105.9      110        0    1.061   0.1322        0     1.12     0.95 1  0;
 536    105.9      110        0    1.061   0.1322        0     1.12     0.95 1  0;
 537     36.5      110   0.6849    1.055   0.4795        0     1.12     0.95 1  1;
 537     35.6      110   0.7022    1.055   0.4916        0     1.12     0.95 1  1;
 537    126.2      110        0    1.055   0.1387        0     1.12     0.95 1  0;
 537    106.4      110        0    1.055   0.1645        0     1.12     0.95 1  0;
 551      1.7      110   0.8235    1.053   0.4118        0     1.12     0.95 1  1;
 559     34.4      110   0.8721    1.057   0.1453        0     1.12     0.95 1  1;
 559     28.4      110        0    1.057   0.1761        0     1.12     0.95 1  0;
 559     26.5      110        0    1.057   0.1887        0     1.12     0.95 1  0;
 559     30.4      110        0    1.057   0.1645        0     1.12     0.95 1  0;
 559     34.4      110        0    1.057   0.1453        0     1.12     0.95 1  0;
 560     34.4      110   0.8721    1.056   0.1453        0     1.12     0.95 1  1;
 560     34.4      110        0    1.056   0.1453        0     1.12     0.95 1  0;
 560     26.5      110        0    1.056   0.1887        0     1.12     0.95 1  0;
 560     34.4      110        0    1.056   0.1453        0     1.12     0.95 1  0;
 573      8.9      110   0.1124    1.079   0.4494        0     1.12     0.95 1  1;
 626     97.7      110   0.7984    1.091   0.3071        0     1.12     0.95 1  1;
 626     46.8      110    0.641    1.091    0.641        0     1.12     0.95 1  1;
 664    267.7      110   0.4856    1.091   0.5417   -0.127     1.12     0.95 1  1;
 665    267.7      110        0    1.091   0.5417   -0.127     1.12     0.95 1  0;
 685    182.5      110   0.8219    1.096   0.1644        0     1.12     0.95 1  1;
 685     77.5      110   0.6452    1.096   0.3871        0     1.12     0.95 1  1;
 691      3.1      110   0.7839    1.088   0.5806        0     1.12     0.95 1  1;
 716     10.1      110   0.1455    1.079   0.1287        0     1.12     0.95 1  1;
 740    259.9      110   0.4963    1.091   0.5002 -0.06156     1.12     0.95 1  1;
 763    105.4      110   0.8159    1.078   0.2846        0     1.12     0.95 1  1;
 792      8.4      110    0.119    1.053    0.119        0     1.12     0.95 1  1;
 796     71.9      110   0.9471    1.061   0.3199        0     1.12     0.95 1  1;
 796     71.9      110        0    1.061   0.3199        0     1.12     0.95 1  0;
 796     32.9      110        0    1.061   0.3343        0     1.12     0.95 1  0;
 796     32.6      110        0    1.061   0.3067        0     1.12     0.95 1  0;
 807    125.4      110        0    1.082  0.07974        0     1.12     0.95 1  0;
 808    125.4      110   0.7337    1.087  0.07974        0     1.12     0.95 1  1;
 845       33      110   0.4545    1.071   0.2455        0     1.12     0.95 1  1;
 845       33      110   0.4545    1.071   0.2455        0     1.12     0.95 1  1;
 845       19      110        0    1.071        0        0     1.12     0.95 1  0;
 845       19      110        0    1.071        0        0     1.12     0.95 1  0;
 877     87.7      110   0.3991    1.085   0.4698        0     1.12     0.95 1  1;
 900     65.8      110        0    1.071   0.6839   -0.152     1.12     0.95 1  0;
 900     71.1      110   0.7032    1.071   0.6329  -0.1406     1.12     0.95 1  1;
 900     71.1      110        0    1.071   0.6329  -0.1406     1.12     0.95 1  0;
 975    162.2      110        0    1.077   0.6782  -0.2466     1.12     0.95 1  0;
 976    162.2      110   0.6165    1.086   0.6782  -0.2466     1.12     0.95 1  1;
 980     16.8      110        0    1.086        0        0     1.12     0.95 1  0;
1001    454.5      110   0.8493    1.103   0.5281 -0.07041     1.12     0.95 1  1;
1002    434.1      110   0.8523    1.091   0.5229 -0.06911     1.12     0.95 1  1;
1006      7.1      110   0.8451    1.084   0.2038        0     1.12     0.95 1  1;
1005        4      110        1    1.084   0.1118        0     1.12     0.95 1  1;
1006        5      110      0.8    1.084   0.0894        0     1.12     0.95 1  1;
1006        6      110        0    1.084        0        0     1.12     0.95 1  0;
1007    174.1      110        0    1.083   0.6318  -0.2298     1.12     0.95 1  0;
1013     20.6      110   0.7282    1.079    0.233        0     1.12     0.95 1  1;
1013     12.8      110        0    1.079        0        0     1.12     0.95 1  0;
1013     12.5      110        0    1.079        0        0     1.12     0.95 1  0;
1015       20      110        0    1.076        0        0     1.12     0.95 1  0;
1015       19      110        0    1.076        0        0     1.12     0.95 1  0;
1024       30      110      0.4    1.059      0.6      0.3     1.12     0.95 1  1;
1025       30      110        0    1.059      0.6      0.3     1.12     0.95 1  0;
1026     32.2      110        0    1.059   0.4348   0.3261     1.12     0.95 1  0;
1113     62.5      110        0    1.083      0.6   0.2688     1.12     0.95 1  0;
1114     62.5      110        0    1.075      0.6     0.12     1.12     0.95 1  0;
1113     62.5      110      0.8    1.083      0.6     0.12     1.12     0.95 1  1;
1115     62.5      110        0    1.081      0.6   0.2688     1.12     0.95 1  0;
1152     30.5      110   0.5574    1.065   0.1722        0     1.12     0.95 1  1;
1152        6      110        0    1.065        0        0     1.12     0.95 1  0;
1153     30.5      110   0.5574    1.065   0.1722        0     1.12     0.95 1  1;
1153       25      110        0    1.065        0        0     1.12     0.95 1  0;
1154     30.5      110   0.5246    1.069   0.1721        0     1.12     0.95 1  1;
1154        6      110        0    1.069        0        0     1.12     0.95 1  0;
1179     87.5      110      0.8    1.084      0.6        0     1.12     0.95 1  1;
1180     87.5      110        0    1.073      0.6        0     1.12     0.95 1  0;
1180     65.3      110        0    1.073   0.6432   0.2573     1.12     0.95 1  0;
1188       50      110        1     1.08        0        0     1.12     0.95 1  1;
1246     16.7      110   0.5988    1.078   0.1198        0     1.12     0.95 1  1;
1246       24      110        0    1.078        0        0     1.12     0.95 1  0;
1247     14.6      110        0    1.068        0        0     1.12     0.95 1  0;
1247     14.6      110        0    1.068        0        0     1.12     0.95 1  0;
1247     14.6      110        0    1.068        0        0     1.12     0.95 1  0;
1248      5.5      110        0    1.063        0        0     1.12     0.95 1  0;
1248      5.5      110        0    1.063        0        0     1.12     0.95 1  0;
...
   ];

PQ.con = [ ...
  26 100      220   0.6136   0.7205     1.11     0.95 0 1;
  27 100      220   0.8486    1.221     1.11     0.95 0 1;
  28 100      400     0.49     0.74     1.05     0.95 0 1;
  29 100      400     0.49     0.74     1.05     0.95 0 1;
  42 100      220     0.25        0     1.11     0.95 0 1;
  43 100      220     0.26        0     1.11     0.95 0 1;
  44 100      400     0.25        0     1.05     0.95 0 1;
  54 100      220     0.13        0     1.11     0.95 0 1;
  55 100      220     0.13        0     1.11     0.95 0 1;
  56 100      400     0.13        0     1.05     0.95 0 1;
  57 100      400     0.26        0     1.05     0.95 0 1;
  58 100      220   0.8907      0.4     1.11     0.95 0 1;
  69 100      220   0.1033        0     1.11     0.95 0 1;
  70 100      220  0.08032  0.03714     1.11     0.95 0 1;
  77 100      220     0.27      0.7     1.11     0.95 0 1;
  78 100      220    0.187     0.42     1.11     0.95 0 1;
  79 100      220  0.04934  0.00817     1.11     0.95 0 1;
  81 100      400     0.18     0.57     1.05     0.95 0 1;
  85 100      220   0.4486   -0.064     1.11     0.95 0 1;
  97 100      220   0.1249  0.03696     1.11     0.95 0 1;
  98 100      220   0.1733  0.06126     1.11     0.95 0 1;
 103 100      220     0.14      0.4     1.11     0.95 0 1;
 105 100      220     0.07     0.18     1.11     0.95 0 1;
 107 100      220        0   0.1389     1.11     0.95 0 1;
 108 100      220   0.7378  0.08097     1.11     0.95 0 1;
 116 100      220     0.08     0.15     1.11     0.95 0 1;
 117 100      220    0.055      0.1     1.11     0.95 0 1;
 124 100      220     0.11    0.175     1.11     0.95 0 1;
 125 100      220   0.4135    0.612     1.11     0.95 0 1;
 126 100      400     0.14     0.33     1.05     0.95 0 1;
 131 100      220    0.015     0.09     1.11     0.95 0 1;
 133 100      220   0.1121    0.083     1.11     0.95 0 1;
 134 100      220   0.1033    0.077     1.11     0.95 0 1;
 147 100      220   0.2555    0.129     1.11     0.95 0 1;
 149 100      400     0.11     0.12     1.05     0.95 0 1;
 150 100      400   0.1192    0.137     1.05     0.95 0 1;
 154 100      220   0.1948    0.643     1.11     0.95 0 1;
 155 100      220     0.16     0.33     1.11     0.95 0 1;
 157 100      400      0.1     0.25     1.05     0.95 0 1;
 163 100      220   0.0554   0.0293     1.11     0.95 0 1;
 164 100      220   0.1825    0.115     1.11     0.95 0 1;
 179 100      220   0.0313    0.015     1.11     0.95 0 1;
 208 100      110   0.0959     0.01     1.12     0.95 0 1;
 209 100      110  0.04795    0.005     1.12     0.95 0 1;
 210 100      110  0.04262     0.02     1.12     0.95 0 1;
 211 100      110    0.065    0.054     1.12     0.95 0 1;
 212 100      110  0.02877    0.006     1.12     0.95 0 1;
 213 100      110  0.03197    0.003     1.12     0.95 0 1;
 214 100      110   0.2171    0.123     1.12     0.95 0 1;
 215 100      110   0.1225     0.02     1.12     0.95 0 1;
 216 100      110  0.06926     0.02     1.12     0.95 0 1;
 217 100      110   0.1065    0.015     1.12     0.95 0 1;
 218 100      110  0.07672     0.03     1.12     0.95 0 1;
 219 100      110  0.08524     0.02     1.12     0.95 0 1;
 221 100      110  0.06606    0.021     1.12     0.95 0 1;
 222 100      110  0.08099    0.015     1.12     0.95 0 1;
 223 100      110  0.00746    0.001     1.12     0.95 0 1;
 224 100      110  0.03943    0.002     1.12     0.95 0 1;
 225 100      110  0.03197    0.005     1.12     0.95 0 1;
 226 100      110   0.1279     0.01     1.12     0.95 0 1;
 227 100      110  0.04475    0.007     1.12     0.95 0 1;
 228 100      110  0.04262    0.007     1.12     0.95 0 1;
 229 100      110  0.02451   0.0098     1.12     0.95 0 1;
 230 100      110  0.02451   0.0098     1.12     0.95 0 1;
 231 100      110  0.05327     0.01     1.12     0.95 0 1;
 232 100      110  0.04262     0.01     1.12     0.95 0 1;
 233 100      110  0.09057    0.004     1.12     0.95 0 1;
 234 100      110   0.3197     0.28     1.12     0.95 0 1;
 235 100      110   0.0586    0.008     1.12     0.95 0 1;
 236 100      110  0.08631   0.0294     1.12     0.95 0 1;
 237 100      110  0.05967    0.002     1.12     0.95 0 1;
 238 100      110  0.05328    0.005     1.12     0.95 0 1;
 240 100      110   0.1204     0.01     1.12     0.95 0 1;
 241 100      110  0.03836   0.0118     1.12     0.95 0 1;
 242 100      110  0.03729    0.004     1.12     0.95 0 1;
 243 100      110  0.03729    0.004     1.12     0.95 0 1;
 244 100      110  0.02131    0.011     1.12     0.95 0 1;
 246 100       22        0     0.05     1.12     0.95 0 1;
 247 100      110  0.07458     0.01     1.12     0.95 0 1;
 248 100      110  0.02131        0     1.12     0.95 0 1;
 249 100      110  0.02131        0     1.12     0.95 0 1;
 250 100      110  0.02664    0.005     1.12     0.95 0 1;
 251 100      110  0.03516    0.001     1.12     0.95 0 1;
 252 100      110   0.1172    0.054     1.12     0.95 0 1;
 253 100      110   0.1172     0.04     1.12     0.95 0 1;
 254 100      110   0.1012     0.01     1.12     0.95 0 1;
 255 100      110   0.1279    0.015     1.12     0.95 0 1;
 256 100      110  0.04795        0     1.12     0.95 0 1;
 257 100      110  0.03197   0.0065     1.12     0.95 0 1;
 258 100      110  0.03197   0.0065     1.12     0.95 0 1;
 259 100      110  0.07992   0.0247     1.12     0.95 0 1;
 260 100      110  0.04795        0     1.12     0.95 0 1;
 261 100      110  0.08098    0.015     1.12     0.95 0 1;
 263 100      110  0.01279     0.01     1.12     0.95 0 1;
 264 100      110   0.2557     0.22     1.12     0.95 0 1;
 265 100      110    0.341      0.3     1.12     0.95 0 1;
 266 100      110    0.277    0.008     1.12     0.95 0 1;
 267 100      110  0.01066        0     1.12     0.95 0 1;
 268 100      110   0.0959    0.008     1.12     0.95 0 1;
 269 100      110  0.05967     0.02     1.12     0.95 0 1;
 270 100      110  0.09057    0.015     1.12     0.95 0 1;
 271 100      110  0.06393    0.005     1.12     0.95 0 1;
 272 100      110  0.07885   0.0185     1.12     0.95 0 1;
 273 100      110  0.00426    0.001     1.12     0.95 0 1;
 274 100      110  0.00213   0.0006     1.12     0.95 0 1;
 276 100      110    0.114   0.0518     1.12     0.95 0 1;
 278 100      110  0.05328    0.014     1.12     0.95 0 1;
 279 100      110  0.02131    0.005     1.12     0.95 0 1;
 280 100      110  0.05328    0.005     1.12     0.95 0 1;
 281 100      110  0.05328     0.01     1.12     0.95 0 1;
 282 100      110  0.05328     0.01     1.12     0.95 0 1;
 283 100      110   0.1492     0.12     1.12     0.95 0 1;
 284 100      110   0.3729     0.33     1.12     0.95 0 1;
 285 100      110  0.01386    0.004     1.12     0.95 0 1;
 287 100      110  0.08525    0.029     1.12     0.95 0 1;
 288 100      110  0.07459     0.02     1.12     0.95 0 1;
 289 100      110  0.06926    0.005     1.12     0.95 0 1;
 290 100      110  0.04795        0     1.12     0.95 0 1;
 291 100      110  0.03729    0.025     1.12     0.95 0 1;
 292 100      110  0.02344    0.002     1.12     0.95 0 1;
 293 100      110    0.114    0.041     1.12     0.95 0 1;
 294 100      110  0.08311    0.015     1.12     0.95 0 1;
 295 100      110  0.04902   0.0151     1.12     0.95 0 1;
 296 100      110  0.01704    0.014     1.12     0.95 0 1;
 297 100      110  0.04582    0.005     1.12     0.95 0 1;
 298 100      110  0.07672    0.008     1.12     0.95 0 1;
 299 100      110  0.04262    0.007     1.12     0.95 0 1;
 300 100      110   0.0618   0.0211     1.12     0.95 0 1;
 301 100      110  0.08205   0.0253     1.12     0.95 0 1;
 302 100      110  0.08524    0.005     1.12     0.95 0 1;
 304 100      110  0.04049    0.015     1.12     0.95 0 1;
 305 100      110  0.07992   0.0272     1.12     0.95 0 1;
 306 100      110  0.07779    0.024     1.12     0.95 0 1;
 307 100      110   0.1375   0.0424     1.12     0.95 0 1;
 308 100      110   0.1225   0.0378     1.12     0.95 0 1;
 309 100      110   0.1415  0.09046     1.12     0.95 0 1;
 310 100      110   0.1176     0.07     1.12     0.95 0 1;
 311 100      110   0.1557    0.083     1.12     0.95 0 1;
 313 100      110   0.1035   0.0548     1.12     0.95 0 1;
 314 100      110   0.0618   0.0515     1.12     0.95 0 1;
 315 100      110  0.08525    0.012     1.12     0.95 0 1;
 316 100      110  0.02131    0.005     1.12     0.95 0 1;
 317 100      110  0.04794    0.015     1.12     0.95 0 1;
 318 100      110  0.03996   0.0125     1.12     0.95 0 1;
 319 100      110  0.06127   0.0125     1.12     0.95 0 1;
 320 100      110  0.06926    0.025     1.12     0.95 0 1;
 321 100      110  0.08205   0.0253     1.12     0.95 0 1;
 322 100      110    0.146   0.0451     1.12     0.95 0 1;
 323 100      110   0.1279    0.015     1.12     0.95 0 1;
 324 100      110   0.1396   0.0476     1.12     0.95 0 1;
 325 100      110  0.05967   0.0184     1.12     0.95 0 1;
 326 100      110  0.05967   0.0184     1.12     0.95 0 1;
 327 100      110  0.07459     0.01     1.12     0.95 0 1;
 328 100      110   0.1385     0.03     1.12     0.95 0 1;
 329 100      110  0.09057    0.028     1.12     0.95 0 1;
 330 100      110  0.05328     0.02     1.12     0.95 0 1;
 331 100      110  0.03197     0.01     1.12     0.95 0 1;
 332 100      110   0.2685   0.0829     1.12     0.95 0 1;
 333 100      110  0.07459     0.01     1.12     0.95 0 1;
 334 100      110  0.02664    0.008     1.12     0.95 0 1;
 335 100      110   0.0586    0.008     1.12     0.95 0 1;
 336 100      110  0.05434    0.002     1.12     0.95 0 1;
 337 100      110  0.07352   0.0227     1.12     0.95 0 1;
 338 100      110  0.07459    0.027     1.12     0.95 0 1;
 339 100      110   0.0959    0.027     1.12     0.95 0 1;
 340 100      110   0.0959    0.027     1.12     0.95 0 1;
 341 100      110  0.02664    0.005     1.12     0.95 0 1;
 344 100      110   0.1119     0.04     1.12     0.95 0 1;
 345 100      110   0.1119    0.035     1.12     0.95 0 1;
 347 100      110  0.03729    0.005     1.12     0.95 0 1;
 348 100      110  0.05328     0.01     1.12     0.95 0 1;
 349 100      110  0.06926    0.004     1.12     0.95 0 1;
 350 100      110   0.1161   0.0359     1.12     0.95 0 1;
 351 100      110  0.07672    0.018     1.12     0.95 0 1;
 353 100      110  0.04262     0.01     1.12     0.95 0 1;
 355 100      110  0.01066    0.003     1.12     0.95 0 1;
 358 100      110  0.06393    0.019     1.12     0.95 0 1;
 359 100      110  0.06926    0.025     1.12     0.95 0 1;
 360 100      110  0.09057    0.012     1.12     0.95 0 1;
 363 100      110  0.05861    0.008     1.12     0.95 0 1;
 364 100      110  0.04156    0.008     1.12     0.95 0 1;
 365 100      110   0.5328      0.1     1.12     0.95 0 1;
 366 100      110   0.5328      0.1     1.12     0.95 0 1;
 367 100      110   0.5328      0.1     1.12     0.95 0 1;
 368 100      110   0.5328      0.1     1.12     0.95 0 1;
 370 100      110  0.08524    0.008     1.12     0.95 0 1;
 371 100      110   0.1705     0.01     1.12     0.95 0 1;
 372 100      110  0.04262     0.01     1.12     0.95 0 1;
 374 100      110   0.1172    0.031     1.12     0.95 0 1;
 375 100      110  0.02664    0.007     1.12     0.95 0 1;
 376 100      110  0.02664    0.007     1.12     0.95 0 1;
 377 100      110  0.06393    0.015     1.12     0.95 0 1;
 378 100      110  0.06607    0.004     1.12     0.95 0 1;
 379 100      110   0.0586    0.012     1.12     0.95 0 1;
 380 100      110  0.04795    0.008     1.12     0.95 0 1;
 381 100      110  0.02131     0.01     1.12     0.95 0 1;
 382 100      110   0.1065    0.021     1.12     0.95 0 1;
 383 100      110  0.07459    0.018     1.12     0.95 0 1;
 384 100      110   0.1225    0.035     1.12     0.95 0 1;
 387 100      110  0.02131    0.005     1.12     0.95 0 1;
...
   ];

Shunt.con = [ ...
 198 100      400 60        0    -1.17 1;
   ];

Line.con = [ ...
   7    8 100      220 60 0      0.55  0.00064   0.0305        0    1.044     -0.6        4        4        4  1;
  26   28 100      220 60 0      0.55  0.00036  0.02519        0    1.067        0        5        5        5  1;
  27   29 100      220 60 0      0.55  0.00036  0.02519        0    1.067        0        5        5        5  1;
  39   41 100      220 60 0      0.55  0.00034  0.02097        0     1.11        0        5        5        5  1;
  42   45 100      220 60 0      0.55  0.00034  0.02097        0    1.092        0        5        5        5  1;
  54   56 100      220 60 0      0.55  0.00081     0.03        0    1.047        0        4        4        4  1;
  89   91 100      220 60 0      0.55  0.00075  0.02444 -0.00832    1.055        0      3.3      3.3      3.3  1;
  90   92 100      220 60 0      0.55  0.00075  0.02469   -0.008    1.055        0      3.3      3.3      3.3  1;
 124  127 100      220 60 0      0.55   0.0005  0.02875   -0.016    1.087        0        4        4        4  1;
 148  149 100      220 60 0      0.55  0.00064   0.0305        0    1.064        0        4        4        4  1;
 154  156 100      220 60 0      0.55 0.000232    0.023        0    1.095        0        5        5        5  1;
 155  157 100      220 60 0      0.55 0.000232    0.023        0    1.095        0        5        5        5  1;
 168  170 100      220 60 0      0.55  0.00035  0.02375        0    1.077        0        5        5        5  1;
 182  183 100      220 60 0      0.55  0.00059  0.03093        0     1.05        0        4        4        4  1;
 189  191 100      220 60 0      0.55   0.0004     0.03        0    1.069      3.6        5        5        5  1;
2726  156 100      400 60 0         0  0.00031  0.00338   0.0992        0        0    13.86    13.86    13.86  1;
2726  157 100      400 60 0         0  0.00031  0.00338   0.0992        0        0    13.86    13.86    13.86  1;
2727   67 100      220 60 0         0  0.01434  0.08353    0.126        0        0     3.85     3.85     3.85  1;
2725   75 100      220 60 0         0  0.01219  0.07066   0.1174        0        0     4.12     4.12     4.12  1;
2725  104 100      220 60 0         0  0.01178  0.07087   0.1168        0        0     4.12     4.12     4.12  1;
 126 2724 100      400 60 0         0 0.001525  0.01684   0.5058        0        0    13.86    13.86    13.86  1;
2728  147 100      220 60 0         0 0.001651  0.01591  0.04695        0        0     3.16     3.16     3.16  1;
2728  148 100      220 60 0         0 0.001651  0.01591  0.04695        0        0     3.16     3.16     3.16  1;
2729   47 100      400 60 0         0  0.00188  0.02287   0.6432        0        0     8.31     8.31     8.31  1;
2729   48 100      400 60 0         0  0.00188  0.02287   0.6432        0        0     8.31     8.31     8.31  1;
  81 2723 100      400 60 0         0 0.002769  0.03116   0.8982        0        0    13.86    13.86    13.86  1;
  42   23 100      220 60 0         0  0.01345  0.08114   0.1411        0        0     3.39     3.39     3.39  1;
  26   89 100      220 60 0         0 0.009091   0.0624   0.1114        0        0     4.53     4.53     4.53  1;
  27   90 100      220 60 0         0  0.00868  0.06405  0.09699        0        0     4.27     4.27     4.27  1;
 145   30 100      220 60 0         0  0.01696   0.1237    0.197        0        0     3.16     3.16     3.16  1;
 134   33 100      220 60 0         0  0.00512  0.02618  0.02962        0        0     3.01     3.01     3.01  1;
 133   20 100      220 60 0         0  0.01068  0.06196  0.09496        0        0     3.85     3.85     3.85  1;
 163   21 100      220 60 0         0  0.01465   0.1059   0.1709        0        0     3.16     3.16     3.16  1;
  40  108 100      220 60 0         0  0.01488  0.08161   0.1148        0        0     3.14     3.14     3.14  1;
  39   90 100      220 60 0         0  0.01116  0.07231   0.1037        0        0     3.24     3.24     3.24  1;
 177   82 100      220 60 0         0 0.005517  0.05948   0.1708        0        0     3.16     3.16     3.16  1;
 202  164 100      220 60 0         0  0.01176  0.06829   0.1028        0        0     3.24     3.24     3.24  1;
 193  164 100      220 60 0         0  0.01682  0.08909   0.1299        0        0     3.58     3.58     3.58  1;
 192  163 100      220 60 0         0  0.01384  0.08703   0.1348        0        0     3.83     3.83     3.83  1;
 206  166 100      220 60 0         0  0.01676  0.09717   0.1487        0        0     2.69     2.69     2.69  1;
  42   10 100      220 60 0         0  0.01269  0.07498   0.1302        0        0     3.51     3.51     3.51  1;
 197   18 100      220 60 0         0  0.01409   0.1041   0.1597        0        0     3.16     3.16     3.16  1;
  99   54 100      220 60 0         0 0.003719   0.0438    0.101        0        0     4.57     4.57     4.57  1;
 161   81 100      400 60 0         0  0.00194  0.02056   0.5158        0        0    11.78    11.78    11.78  1;
  44    9 100      400 60 0         0   0.0015  0.01506   0.4032        0        0    13.86    13.86    13.86  1;
 184  149 100      400 60 0         0  0.00294  0.03463   0.9216        0        0     6.93     6.93     6.93  1;
 120   56 100      400 60 0         0  0.00169  0.01994   0.5062        0        0     8.31     8.31     8.31  1;
  29   92 100      400 60 0         0  0.00137  0.01625   0.4118        0        0    13.86    13.86    13.86  1;
  28  122 100      400 60 0         0  0.00231  0.02769   0.7014        0        0    13.86    13.86    13.86  1;
  25  191 100      400 60 0         0  0.00207  0.02474    0.664        0        0    13.86    13.86    13.86  1;
 119   63 100      400 60 0         0   0.0015  0.01788   0.4512        0        0     8.31     8.31     8.31  1;
 121   63 100      400 60 0         0  0.00469  0.05544    1.405        0        0     8.31     8.31     8.31  1;
  81   31 100      400 60 0         0  0.00331  0.03425   0.8589        0        0     9.77     9.77     9.77  1;
  91   28 100      400 60 0         0  0.00219  0.02369   0.5958        0        0    11.78    11.78    11.78  1;
  12    4 100      220 60 0         0  0.01674  0.09711   0.1442        0        0     4.27     4.27     4.27  1;
  30   11 100      220 60 0         0   0.0057   0.0407  0.06021        0        0     3.16     3.16     3.16  1;
  24    4 100      220 60 0         0 0.004419  0.03223  0.04985        0        0     3.83     3.83     3.83  1;
  17    7 100      220 60 0         0  0.01459   0.1122   0.1655        0        0     3.83     3.83     3.83  1;
  21   10 100      220 60 0         0  0.01211  0.08742   0.1402        0        0     3.16     3.16     3.16  1;
  26    5 100      220 60 0         0 0.009773  0.05052  0.08896        0        0     3.77     3.77     3.77  1;
  17    3 100      220 60 0         0  0.01068  0.07895   0.2452        0        0     2.74     2.74     2.74  1;
  26   19 100      220 60 0         0   0.0057  0.03952  0.07553        0        0      4.4      4.4      4.4  1;
  27   20 100      220 60 0         0   0.0057  0.03952  0.07553        0        0      4.4      4.4      4.4  1;
  13    6 100      220 60 0         0  0.00525  0.03988  0.06195        0        0     3.16     3.16     3.16  1;
  13   12 100      220 60 0         0  2.1e-05 0.000207        0        0        0     3.16     3.16     3.16  1;
  32   13 100      220 60 0         0  0.00093  0.00651  0.01113        0        0     3.16     3.16     3.16  1;
  23   11 100      220 60 0         0  0.00205  0.01326  0.02243        0        0     3.85     3.85     3.85  1;
  33    5 100      220 60 0         0 0.007831    0.043  0.04962        0        0     3.01     3.01     3.01  1;
  19    4 100      220 60 0         0  0.00293  0.01599  0.02478        0        0     3.24     3.24     3.24  1;
  26    1 100      220 60 0         0  0.00155  0.01169   0.0182        0        0     6.33     6.33     6.33  1;
  27    2 100      220 60 0         0  0.00155  0.01169   0.0182        0        0     6.33     6.33     6.33  1;
  27   24 100      220 60 0         0 0.003841  0.02853  0.04588        0        0     3.92     3.92     3.92  1;
  25    9 100      400 60 0         0  0.00298  0.03418    0.935        0        0     8.31     8.31     8.31  1;
  28   25 100      400 60 0         0  0.00358  0.04262    1.094        0        0    13.86    13.86    13.86  1;
  14   29 100      400 60 0         0  0.00336  0.03977    1.022        0        0    13.16    13.16    13.16  1;
   8   15 100      400 60 0         0  0.00299  0.03675   0.9184        0        0     11.5     11.5     11.5  1;
   8   14 100      400 60 0         0  0.00112  0.01329   0.3412        0        0     11.5     11.5     11.5  1;
  31   29 100      400 60 0         0  0.00075    0.009   0.2285        0        0     11.5     11.5     11.5  1;
  62   58 100      220 60 0         0  0.01048  0.06097  0.09205        0        0     2.69     2.69     2.69  1;
  60   55 100      220 60 0         0  0.00882  0.06564   0.1007        0        0     2.74     2.74     2.74  1;
  66   34 100      220 60 0         0  0.01122  0.06558  0.09835        0        0     2.74     2.74     2.74  1;
  50   34 100      220 60 0         0  0.01163  0.07031   0.1058        0        0     3.41     3.41     3.41  1;
  58   42 100      220 60 0         0  0.00545  0.04021  0.06699        0        0     4.04     4.04     4.04  1;
  59   43 100      220 60 0         0  0.00545  0.04021  0.06699        0        0     4.04     4.04     4.04  1;
  59   34 100      220 60 0         0  0.00837  0.04868  0.07348        0        0     3.79     3.79     3.79  1;
  67   51 100      220 60 0         0 0.003159  0.02076  0.03146        0        0     3.85     3.85     3.85  1;
  51   38 100      220 60 0         0 0.006979  0.05196  0.07967        0        0     3.16     3.16     3.16  1;
  36   55 100      220 60 0         0  0.00374  0.02783  0.04269        0        0     2.74     2.74     2.74  1;
  37   35 100      220 60 0         0  0.00769  0.05727  0.08789        0        0     3.16     3.16     3.16  1;
  54   37 100      220 60 0         0  0.00556  0.04145   0.0636        0        0     3.83     3.83     3.83  1;
  66   36 100      220 60 0         0 0.004521  0.03368  0.05169        0        0     3.92     3.92     3.92  1;
  66   65 100      220 60 0         0  0.00151 0.008781  0.01316        0        0     3.41     3.41     3.41  1;
  61   42 100      220 60 0         0  0.00574  0.04283  0.06573        0        0     4.04     4.04     4.04  1;
  62   43 100      220 60 0         0  0.00707  0.04541  0.06931        0        0     3.14     3.14     3.14  1;
  61   39 100      220 60 0         0  0.01213  0.06215  0.09371        0        0     3.14     3.14     3.14  1;
  60   40 100      220 60 0         0 0.002479  0.01798  0.02759        0        0     3.16     3.16     3.16  1;
  46   39 100      220 60 0         0 0.002401  0.01494  0.02252        0        0     3.41     3.41     3.41  1;
  49   45 100      400 60 0         0  0.00167   0.0189   0.5418        0        0     11.5     11.5     11.5  1;
  57   53 100      400 60 0         0  0.00109  0.01277   0.3418        0        0     11.5     11.5     11.5  1;
  41   57 100      400 60 0         0 0.002259  0.02644   0.7078        0        0     11.5     11.5     11.5  1;
  63   57 100      400 60 0         0  0.00094  0.01097   0.2938        0        0    13.93    13.93    13.93  1;
  47   64 100      400 60 0         0  0.00113  0.01406   0.3749        0        0    13.86    13.86    13.86  1;
  52   44 100      400 60 0         0  0.00176  0.02144   0.5734        0        0     11.5     11.5     11.5  1;
  95  124 100      220 60 0         0 0.004876  0.03362  0.05961        0        0     4.04     4.04     4.04  1;
  74  105 100      220 60 0         0  0.01093  0.05919  0.08439        0        0     2.46     2.46     2.46  1;
 105   93 100      220 60 0         0 0.001942  0.01393  0.02285        0        0     4.04     4.04     4.04  1;
  78   84 100      220 60 0         0 0.004318  0.02975  0.05264        0        0     3.16     3.16     3.16  1;
 130  129 100      220 60 0         0 0.000661 0.004959 0.007579        0        0     3.79     3.79     3.79  1;
 106  130 100      220 60 0         0 0.005372  0.04039  0.06005        0        0     3.79     3.79     3.79  1;
  90  130 100      220 60 0         0 0.000826 0.005248 0.008683        0        0     3.01     3.01     3.01  1;
  99  118 100      220 60 0         0  0.01589   0.0876   0.1168        0        0     3.14     3.14     3.14  1;
  80  112 100      220 60 0         0 0.002169  0.01459  0.02575        0        0     2.69     2.69     2.69  1;
 115  100 100      220 60 0         0  0.01773   0.1168   0.1636        0        0     2.46     2.46     2.46  1;
 125   73 100      220 60 0         0  0.00593  0.04093  0.07215        0        0     4.04     4.04     4.04  1;
 107   89 100      220 60 0         0 0.003905  0.02847  0.04498        0        0     3.83     3.83     3.83  1;
 117   78 100      220 60 0         0 0.008161  0.04242   0.0612        0        0     3.56     3.56     3.56  1;
 118   77 100      220 60 0         0 0.008161  0.04242   0.0612        0        0     3.56     3.56     3.56  1;
  78   75 100      220 60 0         0 0.005186  0.03839  0.05875        0        0     4.53     4.53     4.53  1;
  77   72 100      220 60 0         0 0.002128  0.01403   0.0226        0        0     3.01     3.01     3.01  1;
 113   77 100      220 60 0         0 0.004628  0.02775  0.04612        0        0     3.24     3.24     3.24  1;
 102   71 100      220 60 0         0  0.01122  0.07074   0.1157        0        0     2.46     2.46     2.46  1;
 109  116 100      220 60 0         0 0.006012  0.04147  0.07364        0        0     3.83     3.83     3.83  1;
  90   68 100      220 60 0         0 0.002066  0.01279  0.02055        0        0     2.69     2.69     2.69  1;
  85   89 100      220 60 0         0 0.001364 0.009731  0.01624        0        0     4.53     4.53     4.53  1;
 128   86 100      220 60 0         0 0.000579 0.004112 0.007008        0        0     4.04     4.04     4.04  1;
 131   75 100      220 60 0         0 0.000847  0.00624 0.009544        0        0     4.57     4.57     4.57  1;
 132   76 100      220 60 0         0 0.000847  0.00626 0.009477        0        0     4.57     4.57     4.57  1;
 101   76 100      220 60 0         0 0.001591  0.01112  0.01913        0        0     4.53     4.53     4.53  1;
 124  103 100      220 60 0         0 0.003141  0.02159  0.03839        0        0     4.04     4.04     4.04  1;
 125  110 100      220 60 0         0 0.004545  0.03157  0.05531        0        0     3.16     3.16     3.16  1;
 103   83 100      220 60 0         0 0.001446 0.009917   0.0176        0        0     3.16     3.16     3.16  1;
 104   94 100      220 60 0         0 0.003822  0.02667  0.04615        0        0     3.16     3.16     3.16  1;
 111   79 100      220 60 0         0 0.007769  0.04128  0.06391        0        0     2.69     2.69     2.69  1;
  88   77 100      220 60 0         0 0.004463  0.03041  0.04867        0        0     2.46     2.46     2.46  1;
 116  107 100      220 60 0         0 0.005888  0.03506  0.05235        0        0     2.46     2.46     2.46  1;
 108   98 100      220 60 0         0 0.003161  0.02341  0.03617        0        0     3.16     3.16     3.16  1;
 115   78 100      220 60 0         0 0.001839   0.0126   0.0224        0        0     3.16     3.16     3.16  1;
 106   87 100      220 60 0         0 0.001715 0.009607  0.01424        0        0     3.01     3.01     3.01  1;
  97   78 100      220 60 0         0 0.003409  0.02442  0.03997        0        0     2.46     2.46     2.46  1;
 116   77 100      220 60 0         0 0.001839   0.0126  0.02239        0        0     3.16     3.16     3.16  1;
  82   96 100      220 60 0         0 0.005702  0.04149  0.06617        0        0     4.04     4.04     4.04  1;
 123  117 100      220 60 0         0 0.004587  0.02463  0.03617        0        0     3.14     3.14     3.14  1;
 123  109 100      220 60 0         0 0.002149  0.01333  0.02211        0        0     2.46     2.46     2.46  1;
  99   70 100      220 60 0         0 0.000785 0.004876  0.00726        0        0     2.69     2.69     2.69  1;
 100   69 100      220 60 0         0 0.000785 0.004876 0.007241        0        0     2.69     2.69     2.69  1;
  92  126 100      400 60 0         0 0.002413  0.02754    0.768        0        0     8.31     8.31     8.31  1;
  81  126 100      400 60 0         0 0.002131  0.02432   0.6774        0        0    13.86    13.86    13.86  1;
 121  114 100      400 60 0         0 0.000913   0.0104   0.2899        0        0     11.5     11.5     11.5  1;
 122  120 100      400 60 0         0 0.003119  0.03563   0.9911        0        0     8.31     8.31     8.31  1;
 114  127 100      400 60 0         0 0.000919  0.01051   0.2929        0        0     11.5     11.5     11.5  1;
 172  155 100      220 60 0         0  0.01545  0.07335   0.1266        0        0     4.27     4.27     4.27  1;
 173  154 100      220 60 0         0  0.01545  0.07335   0.1266        0        0     4.27     4.27     4.27  1;
 175  154 100      220 60 0         0  0.01457  0.07955   0.1401        0        0     3.24     3.24     3.24  1;
 176  155 100      220 60 0         0  0.01457  0.07955   0.1401        0        0     3.24     3.24     3.24  1;
 175  143 100      220 60 0         0 0.006031  0.04401  0.06979        0        0     3.16     3.16     3.16  1;
 164  139 100      220 60 0         0  0.01103  0.08057   0.1241        0        0     4.04     4.04     4.04  1;
 136  154 100      220 60 0         0 0.005831  0.04231  0.07066        0        0     3.83     3.83     3.83  1;
 169  172 100      220 60 0         0  0.01849   0.0956   0.1591        0        0     3.05     3.05     3.05  1;
 151  173 100      220 60 0         0  0.01058    0.053  0.08847        0        0     3.85     3.85     3.85  1;
 153  155 100      220 60 0         0  0.01252  0.09136   0.1454        0        0     4.53     4.53     4.53  1;
 135  136 100      220 60 0         0  0.00506  0.03654   0.0636        0        0     3.05     3.05     3.05  1;
 147  142 100      220 60 0         0  0.01043  0.07789   0.1221        0        0     3.83     3.83     3.83  1;
 152  180 100      220 60 0         0 0.007702  0.05692  0.08673        0        0     3.16     3.16     3.16  1;
 152  179 100      220 60 0         0 0.002256  0.01667  0.02541        0        0     3.33     3.33     3.33  1;
 174  146 100      220 60 0         0 0.009147  0.08955   0.2152        0        0     2.46     2.46     2.46  1;
 174  168 100      220 60 0         0  0.00244  0.01318   0.0213        0        0     3.41     3.41     3.41  0;
 168  139 100      220 60 0         0  0.00355  0.02593  0.04124        0        0     4.04     4.04     4.04  1;
 169  166 100      220 60 0         0  0.01312  0.07622   0.1166        0        0     3.24     3.24     3.24  1;
 168  151 100      220 60 0         0 0.009341  0.05225   0.0877        0        0     3.05     3.05     3.05  1;
 145  134 100      220 60 0         0 0.006141  0.03252  0.05246        0        0     3.56     3.56     3.56  1;
 146  133 100      220 60 0         0  0.00438  0.03188  0.05072        0        0     4.53     4.53     4.53  1;
 163  146 100      220 60 0         0 0.000479  0.00331 0.005711        0        0     4.04     4.04     4.04  1;
 164  145 100      220 60 0         0 0.000479  0.00331 0.005711        0        0     4.04     4.04     4.04  1;
 153  142 100      220 60 0         0  0.01054  0.07686   0.1224        0        0     3.16     3.16     3.16  1;
 158  147 100      220 60 0         0  0.00469  0.03465  0.05382        0        0     3.83     3.83     3.83  1;
 148  140 100      220 60 0         0 0.006469   0.0413  0.06921        0        0     3.83     3.83     3.83  1;
 167  140 100      220 60 0         0  0.00105 0.007211  0.01028        0        0     3.16     3.16     3.16  1;
 167  158 100      220 60 0         0 0.006099  0.04483  0.07095        0        0     3.16     3.16     3.16  1;
 175  135 100      220 60 0         0 0.002211  0.01655  0.02478        0        0     3.16     3.16     3.16  1;
 177  176 100      220 60 0         0 0.005169  0.03698  0.05895        0        0     3.16     3.16     3.16  1;
 180  172 100      220 60 0         0 0.002401  0.01779  0.02759        0        0     3.81     3.81     3.81  1;
 156  137 100      400 60 0         0  0.00274  0.02696   0.7059        0        0     9.77     9.77     9.77  1;
 162  138 100      400 60 0         0   0.0017  0.01733   0.4563        0        0     9.15     9.15     9.15  1;
 160  161 100      400 60 0         0  0.00136  0.01574   0.4337        0        0    14.69    14.69    14.69  1;
 170  150 100      400 60 0         0  0.00371  0.04326    1.187        0        0     6.93     6.93     6.93  1;
 187  192 100      220 60 0         0  0.01882   0.1376   0.2538        0        0     2.99     2.99     2.99  1;
 196  202 100      220 60 0         0  0.02756   0.1601   0.2429        0        0     2.69     2.69     2.69  1;
 188  207 100      220 60 0         0  0.01905   0.1113   0.1679        0        0     2.69     2.69     2.69  1;
 190  193 100      220 60 0         0  0.00795  0.05919   0.0908        0        0     3.16     3.16     3.16  1;
 192  181 100      220 60 0         0   0.0018  0.02114   0.0515        0        0     6.33     6.33     6.33  1;
 201  203 100      220 60 0         0  0.00731  0.05579  0.08364        0        0     2.74     2.74     2.74  1;
...